LTspice 24.0.12 for Windows
Circuit: * G:\Other computers\My Laptop\CVUT\Elektronické prvky\LT02\RR.asc
Start Time: Thu Oct 10 18:14:56 2024
solver = Normal
Maximum thread count: 16



Direct Newton iteration for .op point succeeded.









































































































































































































































































































tnom = 27
temp = 27
method = modified trap
Total elapsed time: 2.614 seconds.

